
Circuit: options savecurrents

Doing analysis at TEMP = 27.000000 and TNOM = 27.000000


No. of Data Rows : 1
Doing analysis at TEMP = 27.000000 and TNOM = 27.000000


Initial Transient Solution
--------------------------

Node                                   Voltage
----                                   -------
1                                       636271
3                                       636270
2                                    -0.952141
4                                      12.0198
5                                      11.0952
6                                      10.1706
7                                      9.24602
8                                      8.32142
9                                      7.39682
12                                     6.47222
13                                     5.54761
14                                     4.62301
15                                     3.69841
16                                     2.77381
17                                      1.8492
18                                    0.924602
10                                         230
11                                      636271
e1#branch                             -97.1143
v1#branch                             -97.1143
vcc#branch                              268657


No. of Data Rows : 1342
dclevel             =  1.200000e+01 from=  0.000000e+00 to=  1.000920e-01
maximum             =  1.202028e+01 at=  1.999200e-02
minimum             =  1.197717e+01 at=  2.839200e-02

The file "trans.ps" may be printed on a postscript printer.
trans_FIG

The file "trans2.ps" may be printed on a postscript printer.
trans2_FIG

The file "trans4.ps" may be printed on a postscript printer.
trans4_FIG
 
********************************************
Operating point
********************************************
op_TAB
dclevel = 1.200000e+01
maximum-minimum = 4.311000e-02
op_END

The file "trans3.ps" may be printed on a postscript printer.
trans3_FIG
ngspice-31 done
