
Circuit: *-----------------------------------------------------------------------------

Reducing trtol to 1 for xspice 'A' devices
Doing analysis at TEMP = 27.000000 and TNOM = 27.000000


No. of Data Rows : 1
Reducing trtol to 1 for xspice 'A' devices
Doing analysis at TEMP = 27.000000 and TNOM = 27.000000


No. of Data Rows : 1
@c.x1.c1[i] = 0.000000e+00
@c.x1.c2[i] = 0.000000e+00
@c1[i] = 0.000000e+00
@c2[i] = 0.000000e+00
@d.x1.dc[id] = -3.99893e-12
@d.x1.de[id] = -4.00267e-12
@d.x1.dln[id] = -4.00008e-11
@d.x1.dlp[id] = -4.00008e-11
@d.x1.dp[id] = -1.00008e-11
@g.x1.ga[i] = -3.62108e-09
@g.x1.gcm[i] = -3.62285e-09
@i.x1.iee[current] = 1.516000e-05
@iteste[current] = 0.000000e+00
@q.x1.q1[ib] = 7.977179e-08
@q.x1.q1[ic] = 7.479019e-06
@q.x1.q1[ie] = -7.55880e-06
@q.x1.q1[is] = 4.960324e-12
@q.x1.q2[ib] = 7.973316e-08
@q.x1.q2[ic] = 7.475398e-06
@q.x1.q2[ie] = -7.55514e-06
@q.x1.q2[is] = 4.960343e-12
@r.x1.r2[i] = -1.76981e-12
@r.x1.rc1[i] = 7.479024e-06
@r.x1.rc2[i] = 7.475403e-06
@r.x1.re1[i] = 7.558791e-06
@r.x1.re2[i] = 7.555132e-06
@r.x1.ree[i] = -4.60772e-08
@r.x1.ro1[i] = 1.928391e-08
@r.x1.ro2[i] = 1.868867e-05
@r.x1.rp[i] = 5.506608e-04
@r1[i] = -7.97332e-08
@r2[i] = 0.000000e+00
@r3[i] = -6.04879e-08
@r4[i] = 1.928391e-08
a$poly$e.x1.egnd#branch_1_0 = -6.53611e-08
h.x1.hlim#branch = -3.85705e-17
in = 0.000000e+00
inv_in = -6.04879e-05
ninv_in = -7.97332e-05
out = 1.867903e-03
out2 = 1.867903e-03
v.x1.vb#branch = -1.76981e-12
v.x1.vc#branch = 3.998932e-12
v.x1.ve#branch = 4.003112e-12
v.x1.vlim#branch = 1.928391e-08
v.x1.vln#branch = -4.00036e-11
v.x1.vlp#branch = -4.00008e-11
vcc = 5.000000e+00
vcc#branch = -5.65615e-04
vee = -5.00000e+00
vee#branch = 5.658208e-04
vin#branch = 0.000000e+00
x1.6 = -1.76981e-07
x1.7 = 1.868867e-03
x1.8 = 1.868867e-03
x1.9 = 0.000000e+00
x1.10 = -6.07758e-01
x1.11 = 4.960324e+00
x1.12 = 4.960343e+00
x1.13 = -5.93880e-01
x1.14 = -5.93887e-01
x1.53 = 4.000000e+00
x1.54 = -4.00000e+00
x1.90 = 1.928391e-05
x1.91 = 4.000000e+01
x1.92 = -4.00000e+01
x1.99 = 0.000000e+00
Reducing trtol to 1 for xspice 'A' devices
Doing analysis at TEMP = 27.000000 and TNOM = 27.000000


Initial Transient Solution
--------------------------

Node                                   Voltage
----                                   -------
vcc                                          5
vee                                         -5
in                                           0
out2                                 0.0018679
x1.11                                  4.96032
x1.12                                  4.96034
x1.6                              -1.76981e-07
x1.7                                0.00186887
out                                  0.0018679
x1.53                                        4
x1.54                                       -4
x1.90                              1.92839e-05
x1.91                                       40
x1.92                                      -40
x1.99                                        0
x1.10                                -0.607758
inv_in                            -6.04879e-05
x1.13                                 -0.59388
ninv_in                           -7.97332e-05
x1.14                                -0.593887
x1.9                                         0
x1.8                                0.00186887
h.x1.hlim#branch                  -3.85705e-17
v.x1.vlim#branch                   1.92839e-08
v.x1.vln#branch                   -4.00036e-11
v.x1.vlp#branch                   -4.00008e-11
v.x1.ve#branch                     4.00311e-12
v.x1.vc#branch                     3.99893e-12
v.x1.vb#branch                    -1.76981e-12
vin#branch                                   0
vee#branch                         0.000565821
vcc#branch                        -0.000565615
a$poly$e.x1.egnd#branch_1_0       -6.53611e-08


No. of Data Rows : 1605
ERROR: (internal)  This operation is not defined for display type printf.
Can't open viewport for graphics.
Reducing trtol to 1 for xspice 'A' devices
Doing analysis at TEMP = 27.000000 and TNOM = 27.000000


No. of Data Rows : 81
ERROR: (internal)  This operation is not defined for display type printf.
Can't open viewport for graphics.
ERROR: (internal)  This operation is not defined for display type printf.
Can't open viewport for graphics.
 *-----------------------------------------------------------------------------
 AC Analysis  Thu Jun  3 11:17:40  2021
--------------------------------------------------------------------------------
Index   frequency       mag(v(out2))    
--------------------------------------------------------------------------------
0	1.000000e+00	1.000077e+03	
1	1.258925e+00	1.000077e+03	
2	1.584893e+00	1.000076e+03	
3	1.995262e+00	1.000076e+03	
4	2.511886e+00	1.000076e+03	
5	3.162278e+00	1.000075e+03	
6	3.981072e+00	1.000073e+03	
7	5.011872e+00	1.000071e+03	
8	6.309573e+00	1.000068e+03	
9	7.943282e+00	1.000062e+03	
10	1.000000e+01	1.000054e+03	
11	1.258925e+01	1.000040e+03	
12	1.584893e+01	1.000018e+03	
13	1.995262e+01	9.999835e+02	
14	2.511886e+01	9.999289e+02	
15	3.162278e+01	9.998422e+02	
16	3.981072e+01	9.997050e+02	
17	5.011872e+01	9.994876e+02	
18	6.309573e+01	9.991433e+02	
19	7.943282e+01	9.985984e+02	
20	1.000000e+02	9.977365e+02	
21	1.258925e+02	9.963752e+02	
22	1.584893e+02	9.942289e+02	
23	1.995262e+02	9.908556e+02	
24	2.511886e+02	9.855788e+02	
25	3.162278e+02	9.773855e+02	
26	3.981072e+02	9.648082e+02	
27	5.011872e+02	9.458318e+02	
28	6.309573e+02	9.179220e+02	
29	7.943282e+02	8.783393e+02	
30	1.000000e+03	8.249021e+02	
31	1.258925e+03	7.571372e+02	
32	1.584893e+03	6.772669e+02	
33	1.995262e+03	5.901839e+02	
34	2.511886e+03	5.021052e+02	
35	3.162278e+03	4.186883e+02	
36	3.981072e+03	3.437542e+02	
37	5.011872e+03	2.790577e+02	
38	6.309573e+03	2.247571e+02	
39	7.943282e+03	1.800619e+02	
40	1.000000e+04	1.437551e+02	
41	1.258925e+04	1.145201e+02	
42	1.584893e+04	9.111245e+01	
43	1.995262e+04	7.243619e+01	
44	2.511886e+04	5.756522e+01	
45	3.162278e+04	4.573750e+01	
46	3.981072e+04	3.633587e+01	
47	5.011872e+04	2.886502e+01	
48	6.309573e+04	2.292944e+01	
49	7.943282e+04	1.821404e+01	
50	1.000000e+05	1.446819e+01	
51	1.258925e+05	1.149262e+01	
52	1.584893e+05	9.128979e+00	
53	1.995262e+05	7.251438e+00	
54	2.511886e+05	5.760038e+00	

Index   frequency       mag(v(out2))    
--------------------------------------------------------------------------------
55	3.162278e+05	4.575368e+00	
56	3.981072e+05	3.634348e+00	
57	5.011872e+05	2.886867e+00	
58	6.309573e+05	2.293121e+00	
59	7.943282e+05	1.821492e+00	
60	1.000000e+06	1.446862e+00	
61	1.258925e+06	1.149284e+00	
62	1.584893e+06	9.129087e-01	
63	1.995262e+06	7.251492e-01	
64	2.511886e+06	5.760065e-01	
65	3.162278e+06	4.575383e-01	
66	3.981072e+06	3.634356e-01	
67	5.011872e+06	2.886871e-01	
68	6.309573e+06	2.293123e-01	
69	7.943282e+06	1.821493e-01	
70	1.000000e+07	1.446863e-01	
71	1.258925e+07	1.149284e-01	
72	1.584893e+07	9.129089e-02	
73	1.995262e+07	7.251493e-02	
74	2.511886e+07	5.760066e-02	
75	3.162278e+07	4.575383e-02	
76	3.981072e+07	3.634356e-02	
77	5.011872e+07	2.886871e-02	
78	6.309573e+07	2.293124e-02	
79	7.943282e+07	1.821493e-02	
80	1.000000e+08	1.446863e-02	
z                   =  8.236747e+02
z = 8.236747e+02
op_TAB
mag(z) = 8.236747e+02
op_END

The file "outputimpedance.ps" may be printed on a postscript printer.
outputimpedance_FIG
Reducing trtol to 1 for xspice 'A' devices
Doing analysis at TEMP = 27.000000 and TNOM = 27.000000


No. of Data Rows : 1
	Node                                  Voltage
	----                                  -------
	----	-------
	x1.8                             1.868867e-03
	x1.9                             0.000000e+00
	x1.14                            -5.93887e-01
	ninv_in                          -7.97332e-05
	x1.13                            -5.93880e-01
	inv_in                           -6.04879e-05
	x1.10                            -6.07758e-01
	x1.99                            0.000000e+00
	x1.92                            -4.00000e+01
	x1.91                            4.000000e+01
	x1.90                            1.928391e-05
	x1.54                            -4.00000e+00
	x1.53                            4.000000e+00
	out                              1.867903e-03
	x1.7                             1.868867e-03
	x1.6                             -1.76981e-07
	x1.12                            4.960343e+00
	x1.11                            4.960324e+00
	out2                             1.867903e-03
	in                               0.000000e+00
	vee                              -5.00000e+00
	vcc                              5.000000e+00

	Source	Current
	------	-------

	@c1[i]                           0.000000e+00
	@r1[i]                           -7.97332e-08
	@r3[i]                           -6.04879e-08
	@r4[i]                           1.928391e-08
	@c2[i]                           0.000000e+00
	@r2[i]                           0.000000e+00
	@r.x1.rp[i]                      5.506608e-04
	@r.x1.ro2[i]                     1.868867e-05
	@r.x1.ro1[i]                     1.928391e-08
	@r.x1.ree[i]                     -4.60772e-08
	@r.x1.re2[i]                     7.555132e-06
	@r.x1.re1[i]                     7.558791e-06
	@r.x1.rc2[i]                     7.475403e-06
	@r.x1.rc1[i]                     7.479024e-06
	@r.x1.r2[i]                      -1.76981e-12
	@q.x1.q2[is]                     4.960343e-12
	@q.x1.q2[ib]                     7.973316e-08
	@q.x1.q2[ie]                     -7.55514e-06
	@q.x1.q2[ic]                     7.475398e-06
	@q.x1.q1[is]                     4.960324e-12
	@q.x1.q1[ib]                     7.977179e-08
	@q.x1.q1[ie]                     -7.55880e-06
	@q.x1.q1[ic]                     7.479019e-06
	@g.x1.gcm[i]                     -3.62285e-09
	@g.x1.ga[i]                      -3.62108e-09
	@d.x1.dp[id]                     -1.00008e-11
	@d.x1.dln[id]                    -4.00008e-11
	@d.x1.dlp[id]                    -4.00008e-11
	@d.x1.de[id]                     -4.00267e-12
	@d.x1.dc[id]                     -3.99893e-12
	@c.x1.c2[i]                      0.000000e+00
	@c.x1.c1[i]                      0.000000e+00
	a$poly$e.x1.egnd#branch_1_0      -6.53611e-08
	vcc#branch                       -5.65615e-04
	vee#branch                       5.658208e-04
	vin#branch                       0.000000e+00
	v.x1.vb#branch                   -1.76981e-12
	v.x1.vc#branch                   3.998932e-12
	v.x1.ve#branch                   4.003112e-12
	v.x1.vlp#branch                  -4.00008e-11
	v.x1.vln#branch                  -4.00036e-11
	v.x1.vlim#branch                 1.928391e-08
	h.x1.hlim#branch                 -3.85705e-17

 BJT models (Bipolar Junction Transistor)
      model                 x1:qx

       type                   npn
       tnom                    27
         is                 8e-16
         bf                 93.75
         nf                     1
        vaf                     0
        ikf                     0
        ise                     0
         ne                   1.5
         br                     1
         nr                     1
        var                     0
        ikr                     0
        isc                     0
         nc                     2
         rb                     0
        irb                     0
        rbm                     0
         re                     0
         rc                     0
        cje                     0
        vje                  0.75
        mje                  0.33
         tf                     0
        xtf                     0
        vtf                     0
        itf                     0
        ptf                     0
        cjc                     0
        vjc                  0.75
        mjc                  0.33
       xcjc                     1
         tr                     0
        cjs                     0
        vjs                  0.75
        mjs                     0
        xtb                     0
         eg                  1.11
        xti                     3
         fc                   0.5
         kf                     0
         af                     0
        iss                     0
         ns                     1
       tlev                     0
      tlevc                     0
       tbf1                     0
       tbf2                     0
       tbr1                     0
       tbr2                     0
      tikf1                     0
      tikf2                     0
      tikr1                     0
      tikr2                     0
      tirb1                     0
      tirb2                     0
       tnc1                     0
       tnc2                     0
       tne1                     0
       tne2                     0
       tnf1                     0
       tnf2                     0
       tnr1                     0
       tnr2                     0
       trb1                     0
       trb2                     0
       trc1                     0
       trc2                     0
       tre1                     0
       tre2                     0
       trm1                     0
       trm2                     0
      tvaf1                     0
      tvaf2                     0
      tvar1                     0
      tvar2                     0
        ctc                     0
        cte                     0
        cts                     0
       tvjc                     0
       tvje                     0
       tvjs                     0
      titf1                     0
      titf2                     0
       ttf1                     0
       ttf2                     0
       ttr1                     0
       ttr2                     0
      tmje1                     0
      tmje2                     0
      tmjc1                     0
      tmjc2                     0
      tmjs1                     0
      tmjs2                     0
       tns1                     0
       tns2                     0
        nkf                   0.5
       tis1                     0
       tis2                     0
      tise1                     0
      tise2                     0
      tisc1                     0
      tisc2                     0
    vbe_max                 1e+99
    vbc_max                 1e+99
    vce_max                 1e+99

 Capacitor models (Fixed capacitor)
      model                     C

        cap                     0
         cj                     0
       cjsw                     0
       defw                 1e-05
       defl                     0
     narrow                     0
      short                     0
        del                     0
        tc1                     0
        tc2                     0
         di                     0
      thick                     0
     bv_max                 1e+99

 Diode models (Junction Diode model)
      model                 x1:dx

      level                     1
         is                 8e-16
        jsw                     0
         rs                     1
        trs                     0
       trs2                     0
          n                     1
         ns                     1
         tt                     0
       ttt1                     0
       ttt2                     0
        cjo                     0
         vj                     1
          m                   0.5
        tm1                     0
        tm2                     0
        cjp                     0
        php                     1
       mjsw                  0.33
        ikf                     0
        ikr                     0
        nbv                     1
       area                     1
         pj                     0
       tlev                     0
      tlevc                     0
         eg                  1.11
        xti                     3
        cta                     0
        ctp                     0
        tpb                     0
       tphp                     0
       jtun                     0
     jtunsw                     0
       ntun                    30
     xtitun                     3
        keg                     1
         kf                     0
         af                     1
         fc                   0.5
        fcs                   0.5
         bv                     0
        ibv                 0.001
        tcv                     0
     fv_max                 1e+99
     bv_max                 1e+99
        isr                 1e-14
         nr                     1

 Resistor models (Simple linear resistor)
      model                     R

        rsh                     0
     narrow                     0
      short                     0
        tc1                     0
        tc2                     0
        tce                     0
       defw                 1e-05
          l                 1e-05
         kf                     0
         af                     0
          r                     0
     bv_max                 1e+99
         lf                     1
         wf                     1
         ef                     1

 spice2poly models (2G6 compatible polynomial controlled source)
      model        a$poly$f.x1.fb      a$poly$e.x1.egnd

       coef                     0                     0
                        1.061e+07                   0.5
                           -1e+07                   0.5
                            1e+07          
                            1e+07          
                           -1e+07          

 BJT: Bipolar Junction Transistor
     device               q.x1.q2               q.x1.q1
      model                 x1:qx                 x1:qx
         ic            7.4754e-06           7.47902e-06
         ib           7.97332e-08           7.97718e-08
         ie          -7.55514e-06           -7.5588e-06
        vbe              0.593807               0.59382
        vbc              -4.96042              -4.96038
         gm           0.000289017           0.000289157
        gpi           3.08285e-06           3.08434e-06
        gmu                 1e-12                 1e-12
         gx                     0                     0
         go           9.22041e-23           9.22069e-23
        cpi                     0                     0
        cmu                     0                     0
        cbx                     0                     0
       csub                     0                     0

 Capacitor: Fixed capacitor
     device                    c1                    c2               c.x1.c2
      model                     C                     C                     C
capacitance               2.2e-07               1.1e-07                 3e-11
      dtemp                     0                     0                     0
     bv_max                 1e+99                 1e+99                 1e+99
          i                     0                     0                     0
          p                    -0                     0                    -0

 Capacitor: Fixed capacitor
     device               c.x1.c1
      model                     C
capacitance             8.661e-12
      dtemp                     0
     bv_max                 1e+99
          i                     0
          p                    -0

 CCVS: Linear current controlled current source
     device             h.x1.hlim
          i          -3.85705e-17
          v           1.92839e-05
          p           -7.4379e-22

 Diode: Junction Diode model
     device               d.x1.dp              d.x1.dln              d.x1.dlp
      model                 x1:dx                 x1:dx                 x1:dx
         vd                   -10                   -40                   -40
         id          -1.00008e-11          -4.00008e-11          -4.00008e-11
         gd                 1e-12                 1e-12                 1e-12
         cd                     0                     0                     0

 Diode: Junction Diode model
     device               d.x1.de               d.x1.dc
      model                 x1:dx                 x1:dx
         vd              -4.00187              -3.99813
         id          -4.00267e-12          -3.99893e-12
         gd                 1e-12                 1e-12
         cd                     0                     0

 Isource: Independent current source
     device              i.x1.iee                iteste
         dc             1.516e-05                     0
          m                     1                     1
      acmag                     0                     1
      pulse         -                     0
                                          1
                                       1000
        sin         -                     0
                                          1
                                       1000
        exp         -                     0
                                          1
                                       1000
        pwl         -                     0
                                          1
                                       1000
       sffm         -                     0
                                          1
                                       1000
         am         -                     0
                                          1
                                       1000
    trnoise         -                     0
                                          1
                                       1000
   trrandom         -                     0
                                          1
                                       1000
          v              -4.39224            -0.0018679
          p           6.65864e-05                     0
    current             1.516e-05                     0

 Resistor: Simple linear resistor
     device                    r1                    r3                    r4
      model                     R                     R                     R
 resistance                  1000                  1000                100000
         ac                  1000                  1000                100000
      dtemp                     0                     0                     0
     bv_max                 1e+99                 1e+99                 1e+99
      noisy                     1                     1                     1
          i          -7.97332e-08          -6.04879e-08           1.92839e-08
          p           6.35738e-12           3.65878e-12           3.71869e-11

 Resistor: Simple linear resistor
     device                    r2               r.x1.rp              r.x1.ro2
      model                     R                     R                     R
 resistance                  1000                 18160                   100
         ac                  1000                 18160                   100
      dtemp                     0                     0                     0
     bv_max                 1e+99                 1e+99                 1e+99
      noisy                     1                     1                     1
          i                     0           0.000550661           1.86887e-05
          p                     0            0.00550661           3.49266e-08

 Resistor: Simple linear resistor
     device              r.x1.ro1              r.x1.ree              r.x1.re2
      model                     R                     R                     R
 resistance                    50             1.319e+07                  1836
         ac                    50             1.319e+07                  1836
      dtemp                     0                     0                     0
     bv_max                 1e+99                 1e+99                 1e+99
      noisy                     1                     1                     1
          i           1.92839e-08          -4.60772e-08           7.55513e-06
          p           1.85935e-14           2.80038e-08           1.04799e-07

 Resistor: Simple linear resistor
     device              r.x1.re1              r.x1.rc2              r.x1.rc1
      model                     R                     R                     R
 resistance                  1836                  5305                  5305
         ac                  1836                  5305                  5305
      dtemp                     0                     0                     0
     bv_max                 1e+99                 1e+99                 1e+99
      noisy                     1                     1                     1
          i           7.55879e-06            7.4754e-06           7.47902e-06
          p             1.049e-07           2.96452e-07           2.96739e-07

 Resistor: Simple linear resistor
     device               r.x1.r2
      model                     R
 resistance                100000
         ac                100000
      dtemp                     0
     bv_max                 1e+99
      noisy                     1
          i          -1.76981e-12
          p           3.13223e-19

 VCCS: Voltage controlled current source
     device              g.x1.gcm               g.x1.ga
          m                     0                     0
          i          -3.62285e-09          -3.62108e-09
          v           1.76981e-07          -1.76981e-07
          p          -6.41176e-16           6.40862e-16

 Vsource: Independent voltage source
     device              v.x1.vln              v.x1.vlp             v.x1.vlim
         dc                    40                    40                     0
      acmag                     0                     0                     0
      pulse         -         -         -
        sin         -         -         -
        exp         -         -         -
        pwl         -         -         -
       sffm         -         -         -
         am         -         -         -
    trnoise         -         -         -
   trrandom         -         -         -
          i          -4.00036e-11          -4.00008e-11           1.92839e-08
          p           1.60014e-09           1.60003e-09                    -0

 Vsource: Independent voltage source
     device               v.x1.ve               v.x1.vc               v.x1.vb
         dc                     1                     1                     0
      acmag                     0                     0                     0
      pulse         -         -         -
        sin         -         -         -
        exp         -         -         -
        pwl         -         -         -
       sffm         -         -         -
         am         -         -         -
    trnoise         -         -         -
   trrandom         -         -         -
          i           4.00311e-12           3.99893e-12          -1.76981e-12
          p          -4.00311e-12          -3.99893e-12                     0

 Vsource: Independent voltage source
     device                   vin                   vee                   vcc
         dc                     0                    -5                     5
      acmag                     0                     0                     0
      pulse                     0         -         -
                             0.01                    
                             1000                    
        sin                     0         -         -
                             0.01                    
                             1000                    
        exp                     0         -         -
                             0.01                    
                             1000                    
        pwl                     0         -         -
                             0.01                    
                             1000                    
       sffm                     0         -         -
                             0.01                    
                             1000                    
         am                     0         -         -
                             0.01                    
                             1000                    
    trnoise                     0         -         -
                             0.01                    
                             1000                    
   trrandom                     0         -         -
                             0.01                    
                             1000                    
          i                     0           0.000565821          -0.000565615
          p                    -0             0.0028291            0.00282808

 spice2poly: 2G6 compatible polynomial controlled source
     device        a$poly$f.x1.fb      a$poly$e.x1.egnd
      model        a$poly$f.x1.fb      a$poly$e.x1.egnd
    acgains             1.061e+07                   0.5
                           -1e+07                   0.5
                            1e+07          
                            1e+07          
                           -1e+07          


Total analysis time (seconds) = 0.028

Total elapsed time (seconds) = 0.032 

Total DRAM available = 15689.691 MB.
DRAM currently available = 7280.941 MB.
Total ngspice program size =   25.031 MB.
Resident set size =   13.082 MB.
Shared ngspice pages =    8.098 MB.
Text (code) pages =    5.070 MB.
Stack = 0 bytes.
Library pages =    5.289 MB.

